/*--------------------------------*- C++ -*----------------------------------*\
| =========                 |                                                 |
| \\      /  F ield         | OpenFOAM: The Open Source CFD Toolbox           |
|  \\    /   O peration     | Version:  4.0                                   |
|   \\  /    A nd           | Web:      www.OpenFOAM.org                      |
|    \\/     M anipulation  |                                                 |
\*---------------------------------------------------------------------------*/
FoamFile
{
    version     2.0;
    format      ascii;
    class       dictionary;
    object      controlDict;
}
// * * * * * * * * * * * * * * * * * * * * * * * * * * * * * * * * * * * * * //

libs            ("libOpenFOAM.so" "libfieldFunctionObjects.so");

application     pisoFoam;

startFrom       latestTime;

startTime       0;

stopAt          endTime;

endTime         1;

deltaT          0.5;

writeControl    timeStep;

writeInterval   2;

purgeWrite      0;

writeFormat     ascii;

writePrecision  18;

writeCompression compressed;

timeFormat      general;

timePrecision   4;

runTimeModifiable true;


functions
{
    forces
    {
        type            forceCoeffs;
        libs ( "libforces.so" );
        writeControl    timeStep;
        writeInterval   1;
        patches         ( "wall" );
        rho             rhoInf;
        log             true;
        rhoInf          1;
        liftDir         (0 1 0);
        dragDir         (1 0 0);
        CofR            (0 0 0);
        pitchAxis       (0 0 1);
        magUInf         1;
        lRef            1;
        Aref            2;
    }
}


// ************************************************************************* //
